Version 4
SHEET 1 880 680
WIRE 192 -320 -48 -320
WIRE -48 -272 -48 -320
WIRE 192 -272 192 -288
WIRE 224 -272 192 -272
WIRE 192 -256 192 -272
WIRE 224 -208 224 -272
WIRE 224 -208 192 -208
WIRE 144 -176 64 -176
WIRE -48 -160 -48 -192
WIRE 192 -112 192 -160
WIRE 256 -112 192 -112
WIRE 304 -112 256 -112
WIRE 192 -64 192 -112
WIRE 224 -16 192 -16
WIRE -16 16 -48 16
WIRE 64 16 64 -176
WIRE 64 16 -16 16
WIRE 144 16 64 16
WIRE -48 48 -48 16
WIRE 192 48 192 32
WIRE 224 48 224 -16
WIRE 224 48 192 48
WIRE 192 80 192 48
WIRE -48 176 -48 128
FLAG -48 176 0
FLAG -48 -160 0
FLAG 192 80 0
FLAG -16 16 Vin
FLAG 256 -112 Vout
SYMBOL cmosp 144 -256 R0
SYMATTR InstName M1
SYMATTR Value2 l=180n w={p}
SYMBOL cmosn 144 -64 R0
SYMATTR InstName M2
SYMATTR Value2 l=180n w=400n
SYMBOL voltage -48 -288 R0
WINDOW 123 0 0 Left 0
WINDOW 39 0 0 Left 0
SYMATTR InstName V1
SYMATTR Value 5
SYMBOL voltage -48 32 R0
WINDOW 123 0 0 Left 0
WINDOW 39 0 0 Left 0
SYMATTR InstName V2
SYMATTR Value PULSE(0 5 0 0 0 5m 10m 5)
SYMBOL Ammeter 192 -336 R0
SYMATTR InstName V3
TEXT -96 240 Left 2 !.INCLUDE tsmc018.lib
TEXT -96 272 Left 2 !.step param Kn list 1 2 4
TEXT -104 360 Left 2 !.param n=table(Kn, 1,400n, 2,800n, 4,1600n)
TEXT -96 216 Left 2 !.tran 10m
TEXT -104 328 Left 2 !.param p=table(Kn, 1,800n, 2,1600n, 4,3200n)
TEXT -96 304 Left 2 !.step param Kp list 1 2 4
